14034712
  -OEChem-01142608143D

 81 85  0     1  0  0  0  0  0999 V2000
    8.4571    1.0647    0.7607 O   0  0  0  0  0  0  0  0  0  0  0  0
   -0.0803   -0.2638   -0.5745 C   0  0  2  0  0  0  0  0  0  0  0  0
   -1.4738   -0.6159    0.0006 C   0  0  1  0  0  0  0  0  0  0  0  0
   -3.9682   -0.5510   -0.1316 C   0  0  1  0  0  0  0  0  0  0  0  0
    0.7928   -1.1562    0.3300 C   0  0  2  0  0  0  0  0  0  0  0  0
   -5.0277    0.4770    0.0631 C   0  0  2  0  0  0  0  0  0  0  0  0
   -2.6791   -0.1799   -0.8201 C   0  0  2  0  0  0  0  0  0  0  0  0
   -4.2200   -0.0062    1.2317 C   0  0  0  0  0  0  0  0  0  0  0  0
    2.2841   -1.0938   -0.0152 C   0  0  1  0  0  0  0  0  0  0  0  0
    2.7807    0.3776    0.0900 C   0  0  2  0  0  0  0  0  0  0  0  0
   -1.4083   -2.1477    0.2067 C   0  0  0  0  0  0  0  0  0  0  0  0
    0.0863   -2.5080    0.2963 C   0  0  0  0  0  0  0  0  0  0  0  0
    0.3593    1.1898   -0.3505 C   0  0  0  0  0  0  0  0  0  0  0  0
    1.8555    1.3789   -0.6553 C   0  0  0  0  0  0  0  0  0  0  0  0
    4.3094    0.5013   -0.2955 C   0  0  2  0  0  0  0  0  0  0  0  0
   -6.4414    0.0194   -0.0393 C   0  0  1  0  0  0  0  0  0  0  0  0
    0.0076   -0.6152   -2.0806 C   0  0  0  0  0  0  0  0  0  0  0  0
    3.0983   -1.9951    0.9249 C   0  0  0  0  0  0  0  0  0  0  0  0
   -4.8058    1.8744   -0.4033 C   0  0  0  0  0  0  0  0  0  0  0  0
   -2.6278   -0.7888   -2.2229 C   0  0  0  0  0  0  0  0  0  0  0  0
    5.1288   -0.6227    0.3540 C   0  0  0  0  0  0  0  0  0  0  0  0
    4.8325    1.8760    0.2186 C   0  0  0  0  0  0  0  0  0  0  0  0
   -7.2729    0.3773    1.2334 C   0  0  0  0  0  0  0  0  0  0  0  0
    4.5665   -1.7142    0.9014 C   0  0  0  0  0  0  0  0  0  0  0  0
    4.5121    0.4164   -1.8276 C   0  0  0  0  0  0  0  0  0  0  0  0
   -7.0876    0.5177   -1.3448 C   0  0  0  0  0  0  0  0  0  0  0  0
    6.6315   -0.4609    0.3691 C   0  0  0  0  0  0  0  0  0  0  0  0
    6.3515    2.0321    0.1638 C   0  0  0  0  0  0  0  0  0  0  0  0
    7.0504    0.9025    0.9120 C   0  0  2  0  0  0  0  0  0  0  0  0
   -8.7055   -0.1621    1.1584 C   0  0  0  0  0  0  0  0  0  0  0  0
   -7.3059    1.8762    1.5465 C   0  0  0  0  0  0  0  0  0  0  0  0
   -1.5437   -0.1592    0.9978 H   0  0  0  0  0  0  0  0  0  0  0  0
   -4.2449   -1.5872   -0.2909 H   0  0  0  0  0  0  0  0  0  0  0  0
    0.6975   -0.7909    1.3669 H   0  0  0  0  0  0  0  0  0  0  0  0
   -2.5976    0.9036   -0.9452 H   0  0  0  0  0  0  0  0  0  0  0  0
   -4.6522   -0.6919    1.9512 H   0  0  0  0  0  0  0  0  0  0  0  0
   -3.5173    0.6846    1.6823 H   0  0  0  0  0  0  0  0  0  0  0  0
    2.4407   -1.4632   -1.0344 H   0  0  0  0  0  0  0  0  0  0  0  0
    2.6979    0.6455    1.1561 H   0  0  0  0  0  0  0  0  0  0  0  0
   -1.8853   -2.7525   -0.5667 H   0  0  0  0  0  0  0  0  0  0  0  0
   -1.9098   -2.4089    1.1469 H   0  0  0  0  0  0  0  0  0  0  0  0
    0.3888   -3.0928   -0.5796 H   0  0  0  0  0  0  0  0  0  0  0  0
    0.3008   -3.1075    1.1868 H   0  0  0  0  0  0  0  0  0  0  0  0
   -0.2307    1.8732   -0.9727 H   0  0  0  0  0  0  0  0  0  0  0  0
    0.1750    1.4850    0.6906 H   0  0  0  0  0  0  0  0  0  0  0  0
    2.1281    2.4053   -0.3854 H   0  0  0  0  0  0  0  0  0  0  0  0
    1.9959    1.2996   -1.7372 H   0  0  0  0  0  0  0  0  0  0  0  0
   -6.4534   -1.0784   -0.1058 H   0  0  0  0  0  0  0  0  0  0  0  0
    1.0595   -0.6437   -2.3902 H   0  0  0  0  0  0  0  0  0  0  0  0
   -0.3363   -1.6147   -2.3453 H   0  0  0  0  0  0  0  0  0  0  0  0
   -0.3831    0.1796   -2.7172 H   0  0  0  0  0  0  0  0  0  0  0  0
    2.9363   -3.0432    0.6451 H   0  0  0  0  0  0  0  0  0  0  0  0
    2.7520   -1.8871    1.9603 H   0  0  0  0  0  0  0  0  0  0  0  0
   -3.9301    2.3322    0.0721 H   0  0  0  0  0  0  0  0  0  0  0  0
   -5.6290    2.5624   -0.2103 H   0  0  0  0  0  0  0  0  0  0  0  0
   -4.6347    1.8955   -1.4864 H   0  0  0  0  0  0  0  0  0  0  0  0
   -2.2944   -1.8219   -2.3079 H   0  0  0  0  0  0  0  0  0  0  0  0
   -3.6671   -0.8499   -2.5852 H   0  0  0  0  0  0  0  0  0  0  0  0
   -2.1960   -0.1326   -2.9777 H   0  0  0  0  0  0  0  0  0  0  0  0
    4.3836    2.6946   -0.3565 H   0  0  0  0  0  0  0  0  0  0  0  0
    4.5174    2.0221    1.2608 H   0  0  0  0  0  0  0  0  0  0  0  0
   -6.8090   -0.1168    2.0963 H   0  0  0  0  0  0  0  0  0  0  0  0
    5.1986   -2.4671    1.3662 H   0  0  0  0  0  0  0  0  0  0  0  0
    5.5707    0.3990   -2.1074 H   0  0  0  0  0  0  0  0  0  0  0  0
    4.0602   -0.4879   -2.2480 H   0  0  0  0  0  0  0  0  0  0  0  0
    4.0775    1.2798   -2.3416 H   0  0  0  0  0  0  0  0  0  0  0  0
   -6.4416    0.3019   -2.2037 H   0  0  0  0  0  0  0  0  0  0  0  0
   -7.2991    1.5903   -1.3445 H   0  0  0  0  0  0  0  0  0  0  0  0
   -8.0357    0.0007   -1.5269 H   0  0  0  0  0  0  0  0  0  0  0  0
    7.0251   -0.6003   -0.6458 H   0  0  0  0  0  0  0  0  0  0  0  0
    7.1174   -1.2419    0.9682 H   0  0  0  0  0  0  0  0  0  0  0  0
    6.6960    2.0725   -0.8770 H   0  0  0  0  0  0  0  0  0  0  0  0
    6.6410    2.9955    0.6019 H   0  0  0  0  0  0  0  0  0  0  0  0
    6.8234    0.9672    1.9825 H   0  0  0  0  0  0  0  0  0  0  0  0
   -9.2111   -0.0446    2.1232 H   0  0  0  0  0  0  0  0  0  0  0  0
   -9.3015    0.3684    0.4089 H   0  0  0  0  0  0  0  0  0  0  0  0
   -8.7089   -1.2289    0.9114 H   0  0  0  0  0  0  0  0  0  0  0  0
   -7.7024    2.4674    0.7164 H   0  0  0  0  0  0  0  0  0  0  0  0
   -7.9578    2.0638    2.4082 H   0  0  0  0  0  0  0  0  0  0  0  0
   -6.3198    2.2532    1.8310 H   0  0  0  0  0  0  0  0  0  0  0  0
    8.6681    1.0000   -0.1863 H   0  0  0  0  0  0  0  0  0  0  0  0
  1 29  1  0  0  0  0
  1 81  1  0  0  0  0
  2  3  1  0  0  0  0
  2  5  1  0  0  0  0
  2 13  1  0  0  0  0
  2 17  1  0  0  0  0
  3  7  1  0  0  0  0
  3 11  1  0  0  0  0
  3 32  1  0  0  0  0
  4  6  1  0  0  0  0
  4  7  1  0  0  0  0
  4  8  1  0  0  0  0
  4 33  1  0  0  0  0
  5  9  1  0  0  0  0
  5 12  1  0  0  0  0
  5 34  1  0  0  0  0
  6  8  1  0  0  0  0
  6 16  1  0  0  0  0
  6 19  1  0  0  0  0
  7 20  1  0  0  0  0
  7 35  1  0  0  0  0
  8 36  1  0  0  0  0
  8 37  1  0  0  0  0
  9 10  1  0  0  0  0
  9 18  1  0  0  0  0
  9 38  1  0  0  0  0
 10 14  1  0  0  0  0
 10 15  1  0  0  0  0
 10 39  1  0  0  0  0
 11 12  1  0  0  0  0
 11 40  1  0  0  0  0
 11 41  1  0  0  0  0
 12 42  1  0  0  0  0
 12 43  1  0  0  0  0
 13 14  1  0  0  0  0
 13 44  1  0  0  0  0
 13 45  1  0  0  0  0
 14 46  1  0  0  0  0
 14 47  1  0  0  0  0
 15 21  1  0  0  0  0
 15 22  1  0  0  0  0
 15 25  1  0  0  0  0
 16 23  1  0  0  0  0
 16 26  1  0  0  0  0
 16 48  1  0  0  0  0
 17 49  1  0  0  0  0
 17 50  1  0  0  0  0
 17 51  1  0  0  0  0
 18 24  1  0  0  0  0
 18 52  1  0  0  0  0
 18 53  1  0  0  0  0
 19 54  1  0  0  0  0
 19 55  1  0  0  0  0
 19 56  1  0  0  0  0
 20 57  1  0  0  0  0
 20 58  1  0  0  0  0
 20 59  1  0  0  0  0
 21 24  2  0  0  0  0
 21 27  1  0  0  0  0
 22 28  1  0  0  0  0
 22 60  1  0  0  0  0
 22 61  1  0  0  0  0
 23 30  1  0  0  0  0
 23 31  1  0  0  0  0
 23 62  1  0  0  0  0
 24 63  1  0  0  0  0
 25 64  1  0  0  0  0
 25 65  1  0  0  0  0
 25 66  1  0  0  0  0
 26 67  1  0  0  0  0
 26 68  1  0  0  0  0
 26 69  1  0  0  0  0
 27 29  1  0  0  0  0
 27 70  1  0  0  0  0
 27 71  1  0  0  0  0
 28 29  1  0  0  0  0
 28 72  1  0  0  0  0
 28 73  1  0  0  0  0
 29 74  1  0  0  0  0
 30 75  1  0  0  0  0
 30 76  1  0  0  0  0
 30 77  1  0  0  0  0
 31 78  1  0  0  0  0
 31 79  1  0  0  0  0
 31 80  1  0  0  0  0
M  END
> <PUBCHEM_COMPOUND_CID>
14034712

> <PUBCHEM_CONFORMER_RMSD>
0.8

> <PUBCHEM_CONFORMER_DIVERSEORDER>
1
5
3
4
2

> <PUBCHEM_MMFF94_PARTIAL_CHARGES>
18
1 -0.68
15 0.14
16 0.09
18 0.14
19 0.09
21 -0.28
24 -0.29
27 0.14
29 0.28
33 0.1
36 0.1
37 0.1
4 -0.19
6 -0.19
63 0.15
7 0.09
8 -0.2
81 0.4

> <PUBCHEM_EFFECTIVE_ROTOR_COUNT>
6.6

> <PUBCHEM_PHARMACOPHORE_FEATURES>
9
1 1 acceptor
1 1 donor
1 20 hydrophobe
1 26 hydrophobe
3 23 30 31 hydrophobe
5 2 3 5 11 12 rings
6 15 21 22 27 28 29 rings
6 2 5 9 10 13 14 rings
6 9 10 15 18 21 24 rings

> <PUBCHEM_HEAVY_ATOM_COUNT>
31

> <PUBCHEM_ATOM_DEF_STEREO_COUNT>
10

> <PUBCHEM_ATOM_UDEF_STEREO_COUNT>
1

> <PUBCHEM_BOND_DEF_STEREO_COUNT>
0

> <PUBCHEM_BOND_UDEF_STEREO_COUNT>
0

> <PUBCHEM_ISOTOPIC_ATOM_COUNT>
0

> <PUBCHEM_COMPONENT_COUNT>
1

> <PUBCHEM_CACTVS_TAUTO_COUNT>
1

> <PUBCHEM_CONFORMER_ID>
00D6271800000001

> <PUBCHEM_MMFF94_ENERGY>
120.2775

> <PUBCHEM_FEATURE_SELFOVERLAP>
45.772

> <PUBCHEM_SHAPE_FINGERPRINT>
10 15 17676208000207357936
10100884 174 17679591305794969995
10162869 55 18114738330785405895
10411042 1 17832138326321419530
106641 1 18113058251110963499
11135609 127 16271634698779638032
11456790 92 18334849494745952680
11534866 41 16588027904728164907
12035758 1 17385722508389928518
12236239 1 18202843258064535487
12539765 74 17775293741702851639
12788726 201 17846501400858204416
12838862 33 18263625373376449544
13540713 4 16879894258490832238
13540713 5 17316213719850043758
13668630 136 9799690415387771376
13782708 43 15936684857439067507
14251764 18 18343581854215503157
14294032 229 17275099502081724381
14341114 176 18041001722193061791
14394314 77 18342463591431348953
14790565 3 18336827494182952260
14849402 71 18411982503014017241
15131766 46 15432315973028412734
15183329 4 18272926120560393501
15188451 53 12612749120694177078
15301273 46 16877656847207276887
15461852 350 16415192416942361581
15475509 35 15792278295056343226
1577012 14 17989485204501387103
15840311 113 18411705391412518084
18222031 100 10303817579587543806
18603816 31 12901834960696787729
18608769 82 18336828693085535059
20105231 36 17022901230015753250
2026 5 7852759901258235808
20505436 4 17989484109111439967
21033648 29 18200300156605244794
21130935 74 18114748127780148219
21150785 3 15697998561039075764
21267235 1 18114744833524127754
21521239 73 9943804482556310268
21756936 100 18272647978800337311
21792934 111 18188192218553775488
22122407 14 18343032115708449425
22224240 67 18113900468412373403
22956985 138 12903479705348245224
23035841 295 12829488147312567009
23559900 14 13830126235243033086
23576562 1 12175035728722358145
24771293 8 18413107272853629725
25223398 141 15194707064916890525
25269216 80 16772939454256745919
2838139 119 17989483031206172481
3009799 131 13398629454698884903
3178227 256 18113341920241066233
335352 9 18407758145354351222
3383291 50 15647347346846893609
34797466 226 17917717889410924925
3633792 109 16056613036398618828
397830 11 16588884502012454433
4073 2 17894917377126734306
4093350 32 17988926648278807030
4340502 62 16950281806425260138
45266715 3 12607415394552990844
5104073 3 17749944445231819984
5283156 175 11386363734061476691
5385378 56 18334575711786903074
5758199 1 18412547604793052347
59682541 35 16732985353397733668
6081469 158 13326864331503213880
6086070 43 17703221944271294842
7226269 152 18202844348643558368
9953998 17 18113905970866463779

> <PUBCHEM_SHAPE_MULTIPOLES>
632.1
23.25
2.03
1.48
13.21
0.24
-0.58
-10.49
8.83
-1.45
0.4
1.27
0.01
-0.73

> <PUBCHEM_SHAPE_SELFOVERLAP>
1332.843

> <PUBCHEM_SHAPE_VOLUME>
356.7

> <PUBCHEM_COORDINATE_TYPE>
2
5
10

$$$$
