5318568
  -OEChem-01142608143D

 54 55  0     0  0  0  0  0  0999 V2000
    4.2795   -0.9277    1.9202 O   0  0  0  0  0  0  0  0  0  0  0  0
    0.8770   -2.1603   -1.2169 O   0  0  0  0  0  0  0  0  0  0  0  0
   -0.1971    2.7787   -1.9653 O   0  0  0  0  0  0  0  0  0  0  0  0
   -2.5591   -1.6675   -1.8099 O   0  0  0  0  0  0  0  0  0  0  0  0
    2.5344   -2.8218    0.9011 O   0  0  0  0  0  0  0  0  0  0  0  0
   -2.2119   -3.4853    0.2643 O   0  0  0  0  0  0  0  0  0  0  0  0
    2.7120    2.3779   -1.3341 C   0  0  0  0  0  0  0  0  0  0  0  0
    1.7414    3.3493   -0.6619 C   0  0  0  0  0  0  0  0  0  0  0  0
    2.6649    0.9917   -0.7386 C   0  0  0  0  0  0  0  0  0  0  0  0
   -3.8528    1.8178    1.3777 C   0  0  0  0  0  0  0  0  0  0  0  0
   -2.6872    2.7846    1.6181 C   0  0  0  0  0  0  0  0  0  0  0  0
   -3.4155    0.4045    1.0771 C   0  0  0  0  0  0  0  0  0  0  0  0
    0.2923    2.9342   -0.8486 C   0  0  0  0  0  0  0  0  0  0  0  0
    1.7844    0.0407   -1.2542 C   0  0  0  0  0  0  0  0  0  0  0  0
    3.5012    0.6622    0.3280 C   0  0  0  0  0  0  0  0  0  0  0  0
   -1.8283    2.9700    0.3980 C   0  0  0  0  0  0  0  0  0  0  0  0
    3.4574   -0.6185    0.8787 C   0  0  0  0  0  0  0  0  0  0  0  0
    1.7405   -1.2401   -0.7034 C   0  0  0  0  0  0  0  0  0  0  0  0
   -0.5079    2.7448    0.3929 C   0  0  0  0  0  0  0  0  0  0  0  0
   -3.1853    0.0107   -0.2410 C   0  0  0  0  0  0  0  0  0  0  0  0
    2.5772   -1.5697    0.3629 C   0  0  0  0  0  0  0  0  0  0  0  0
   -3.2413   -0.5077    2.1180 C   0  0  0  0  0  0  0  0  0  0  0  0
   -2.7808   -1.2951   -0.5186 C   0  0  0  0  0  0  0  0  0  0  0  0
   -2.8371   -1.8137    1.8404 C   0  0  0  0  0  0  0  0  0  0  0  0
   -2.6067   -2.2073    0.5222 C   0  0  0  0  0  0  0  0  0  0  0  0
    5.1488    0.1019    2.3874 C   0  0  0  0  0  0  0  0  0  0  0  0
    1.3596   -2.9793   -2.2800 C   0  0  0  0  0  0  0  0  0  0  0  0
   -2.7597   -0.6751   -2.8144 C   0  0  0  0  0  0  0  0  0  0  0  0
    3.7325    2.7739   -1.2574 H   0  0  0  0  0  0  0  0  0  0  0  0
    2.4998    2.3153   -2.4094 H   0  0  0  0  0  0  0  0  0  0  0  0
    1.9726    3.4355    0.4062 H   0  0  0  0  0  0  0  0  0  0  0  0
    1.8523    4.3508   -1.0932 H   0  0  0  0  0  0  0  0  0  0  0  0
   -4.4987    1.8112    2.2655 H   0  0  0  0  0  0  0  0  0  0  0  0
   -4.4877    2.1859    0.5606 H   0  0  0  0  0  0  0  0  0  0  0  0
   -2.0871    2.4373    2.4686 H   0  0  0  0  0  0  0  0  0  0  0  0
   -3.0954    3.7633    1.8977 H   0  0  0  0  0  0  0  0  0  0  0  0
    1.1330    0.2866   -2.0891 H   0  0  0  0  0  0  0  0  0  0  0  0
    4.1618    1.4439    0.6880 H   0  0  0  0  0  0  0  0  0  0  0  0
   -2.3305    3.3010   -0.5077 H   0  0  0  0  0  0  0  0  0  0  0  0
    0.0216    2.4506    1.2923 H   0  0  0  0  0  0  0  0  0  0  0  0
   -3.3427    0.7593   -1.0101 H   0  0  0  0  0  0  0  0  0  0  0  0
   -3.4152   -0.2122    3.1491 H   0  0  0  0  0  0  0  0  0  0  0  0
   -2.7043   -2.5139    2.6608 H   0  0  0  0  0  0  0  0  0  0  0  0
    1.8382   -3.3298    0.4503 H   0  0  0  0  0  0  0  0  0  0  0  0
    5.8677    0.4037    1.6179 H   0  0  0  0  0  0  0  0  0  0  0  0
    4.5880    0.9514    2.7919 H   0  0  0  0  0  0  0  0  0  0  0  0
    5.7290   -0.3180    3.2157 H   0  0  0  0  0  0  0  0  0  0  0  0
    0.5702   -3.6850   -2.5529 H   0  0  0  0  0  0  0  0  0  0  0  0
    2.2421   -3.5453   -1.9658 H   0  0  0  0  0  0  0  0  0  0  0  0
    1.5985   -2.3664   -3.1549 H   0  0  0  0  0  0  0  0  0  0  0  0
   -2.1419   -3.9707    1.1041 H   0  0  0  0  0  0  0  0  0  0  0  0
   -3.8038   -0.3467   -2.8554 H   0  0  0  0  0  0  0  0  0  0  0  0
   -2.0619    0.1617   -2.6996 H   0  0  0  0  0  0  0  0  0  0  0  0
   -2.5360   -1.1435   -3.7786 H   0  0  0  0  0  0  0  0  0  0  0  0
  1 17  1  0  0  0  0
  1 26  1  0  0  0  0
  2 18  1  0  0  0  0
  2 27  1  0  0  0  0
  3 13  2  0  0  0  0
  4 23  1  0  0  0  0
  4 28  1  0  0  0  0
  5 21  1  0  0  0  0
  5 44  1  0  0  0  0
  6 25  1  0  0  0  0
  6 51  1  0  0  0  0
  7  8  1  0  0  0  0
  7  9  1  0  0  0  0
  7 29  1  0  0  0  0
  7 30  1  0  0  0  0
  8 13  1  0  0  0  0
  8 31  1  0  0  0  0
  8 32  1  0  0  0  0
  9 14  2  0  0  0  0
  9 15  1  0  0  0  0
 10 11  1  0  0  0  0
 10 12  1  0  0  0  0
 10 33  1  0  0  0  0
 10 34  1  0  0  0  0
 11 16  1  0  0  0  0
 11 35  1  0  0  0  0
 11 36  1  0  0  0  0
 12 20  2  0  0  0  0
 12 22  1  0  0  0  0
 13 19  1  0  0  0  0
 14 18  1  0  0  0  0
 14 37  1  0  0  0  0
 15 17  2  0  0  0  0
 15 38  1  0  0  0  0
 16 19  2  0  0  0  0
 16 39  1  0  0  0  0
 17 21  1  0  0  0  0
 18 21  2  0  0  0  0
 19 40  1  0  0  0  0
 20 23  1  0  0  0  0
 20 41  1  0  0  0  0
 22 24  2  0  0  0  0
 22 42  1  0  0  0  0
 23 25  2  0  0  0  0
 24 25  1  0  0  0  0
 24 43  1  0  0  0  0
 26 45  1  0  0  0  0
 26 46  1  0  0  0  0
 26 47  1  0  0  0  0
 27 48  1  0  0  0  0
 27 49  1  0  0  0  0
 27 50  1  0  0  0  0
 28 52  1  0  0  0  0
 28 53  1  0  0  0  0
 28 54  1  0  0  0  0
M  END
> <PUBCHEM_COMPOUND_CID>
5318568

> <PUBCHEM_CONFORMER_RMSD>
1.2

> <PUBCHEM_CONFORMER_DIVERSEORDER>
1
41
11
4
205
141
72
103
121
199
51
105
179
68
186
83
126
37
8
158
58
132
154
191
153
150
29
86
23
22
25
183
142
138
190
9
134
78
135
180
110
55
200
61
81
69
94
114
70
57
123
177
185
17
206
144
50
112
102
122
129
99
145
31
201
168
203
101
90
85
21
152
172
171
181
149
169
188
71
38
120
65
77
139
75
32
193
167
63
170
95
182
146
176
108
187
52
111
162
5
197
165
113
87
13
19
125
49
88
104
161
45
174
27
34
82
73
39
18
140
195
175
40
163
89
28
173
15
6
178
119
76
59
147
207
127
62
97
151
30
60
79
155
100
198
16
92
53
48
64
56
128
46
36
136
194
131
54
202
107
67
7
192
166
184
130
208
84
196
109
26
96
159
156
157
47
148
164
115
42
74
118
98
20
3
12
137
143
35
160
117
24
14
33
124
80
204
133
106
44
91
189
43
66
10
2
93
116

> <PUBCHEM_MMFF94_PARTIAL_CHARGES>
37
1 -0.36
10 0.14
11 0.14
12 -0.14
13 0.49
14 -0.15
15 -0.15
16 -0.29
17 0.08
18 0.08
19 -0.14
2 -0.36
20 -0.15
21 0.08
22 -0.15
23 0.08
24 -0.15
25 0.08
26 0.28
27 0.28
28 0.28
3 -0.57
37 0.15
38 0.15
39 0.15
4 -0.36
40 0.15
41 0.15
42 0.15
43 0.15
44 0.45
5 -0.53
51 0.45
6 -0.53
7 0.14
8 0.06
9 -0.14

> <PUBCHEM_EFFECTIVE_ROTOR_COUNT>
10

> <PUBCHEM_PHARMACOPHORE_FEATURES>
8
1 1 acceptor
1 2 acceptor
1 3 acceptor
1 4 acceptor
1 5 donor
1 6 donor
6 12 20 22 23 24 25 rings
6 9 14 15 17 18 21 rings

> <PUBCHEM_HEAVY_ATOM_COUNT>
28

> <PUBCHEM_ATOM_DEF_STEREO_COUNT>
0

> <PUBCHEM_ATOM_UDEF_STEREO_COUNT>
0

> <PUBCHEM_BOND_DEF_STEREO_COUNT>
1

> <PUBCHEM_BOND_UDEF_STEREO_COUNT>
0

> <PUBCHEM_ISOTOPIC_ATOM_COUNT>
0

> <PUBCHEM_COMPONENT_COUNT>
1

> <PUBCHEM_CACTVS_TAUTO_COUNT>
30

> <PUBCHEM_CONFORMER_ID>
005127A800000001

> <PUBCHEM_MMFF94_ENERGY>
91.5307

> <PUBCHEM_FEATURE_SELFOVERLAP>
40.598

> <PUBCHEM_SHAPE_FINGERPRINT>
12422481 6 18271518690391248930
12539773 59 17127084500395348339
12553582 1 18409739442957326981
12633257 1 18186803582016578459
13122387 1 17112140637944995641
13965767 371 18129944468727460810
14081887 123 18059574654886837912
14114207 22 14062327400865082561
19026451 147 17982156022799060519
3459 83 10015597120901090040
35225 105 17613156265467994439
392239 28 17987783220610637912
445580 8 18057624224548874373
463206 1 17547591717352732699
5309563 4 17545345406654958107
581034 39 17846784044134344222
7064713 232 18128824044735421169

> <PUBCHEM_SHAPE_MULTIPOLES>
541.01
8.12
4.55
2.46
2.96
1.17
-0.33
-1.04
4.99
-0.84
-1
0.06
-0.67
-1.32

> <PUBCHEM_SHAPE_SELFOVERLAP>
1130.829

> <PUBCHEM_SHAPE_VOLUME>
307

> <PUBCHEM_COORDINATE_TYPE>
2
5
10

$$$$
