5320413
  -OEChem-01142608143D

 42 44  0     1  0  0  0  0  0999 V2000
    0.1690   -1.4818    0.7963 O   0  0  0  0  0  0  0  0  0  0  0  0
   -5.1766    1.1996    0.7665 O   0  0  0  0  0  0  0  0  0  0  0  0
   -5.7628   -0.6864   -1.1886 O   0  0  0  0  0  0  0  0  0  0  0  0
    0.3960    0.7815   -0.0721 C   0  0  2  0  0  0  0  0  0  0  0  0
   -0.4751   -0.1767    0.7753 C   0  0  1  0  0  0  0  0  0  0  0  0
    1.7038    0.0867    0.0740 C   0  0  0  0  0  0  0  0  0  0  0  0
    1.4883   -1.2020    0.5433 C   0  0  0  0  0  0  0  0  0  0  0  0
   -1.8870   -0.3102    0.2532 C   0  0  0  0  0  0  0  0  0  0  0  0
    0.3634    2.2150    0.4366 C   0  0  0  0  0  0  0  0  0  0  0  0
    2.9817    0.5150   -0.2418 C   0  0  0  0  0  0  0  0  0  0  0  0
    2.5204   -2.1049    0.7125 C   0  0  0  0  0  0  0  0  0  0  0  0
    4.0434   -0.3768   -0.0650 C   0  0  0  0  0  0  0  0  0  0  0  0
   -2.8964    0.5131    0.7528 C   0  0  0  0  0  0  0  0  0  0  0  0
   -2.1818   -1.2572   -0.7281 C   0  0  0  0  0  0  0  0  0  0  0  0
    3.8138   -1.6789    0.4077 C   0  0  0  0  0  0  0  0  0  0  0  0
   -4.1999    0.3895    0.2715 C   0  0  0  0  0  0  0  0  0  0  0  0
   -3.4850   -1.3807   -1.2094 C   0  0  0  0  0  0  0  0  0  0  0  0
   -4.4941   -0.5573   -0.7098 C   0  0  0  0  0  0  0  0  0  0  0  0
    5.3997    0.0432   -0.3836 C   0  0  0  0  0  0  0  0  0  0  0  0
    5.8321    1.3209   -0.4755 C   0  0  0  0  0  0  0  0  0  0  0  0
   -5.3881    2.4423    0.0992 C   0  0  0  0  0  0  0  0  0  0  0  0
    7.2354    1.7060   -0.8149 C   0  0  0  0  0  0  0  0  0  0  0  0
    0.1052    0.7550   -1.1301 H   0  0  0  0  0  0  0  0  0  0  0  0
   -0.5129    0.1482    1.8258 H   0  0  0  0  0  0  0  0  0  0  0  0
   -0.6456    2.6326    0.3646 H   0  0  0  0  0  0  0  0  0  0  0  0
    0.6854    2.2801    1.4821 H   0  0  0  0  0  0  0  0  0  0  0  0
    1.0305    2.8541   -0.1518 H   0  0  0  0  0  0  0  0  0  0  0  0
    3.1145    1.5141   -0.6424 H   0  0  0  0  0  0  0  0  0  0  0  0
    2.3381   -3.1106    1.0743 H   0  0  0  0  0  0  0  0  0  0  0  0
   -2.6729    1.2525    1.5180 H   0  0  0  0  0  0  0  0  0  0  0  0
   -1.4104   -1.9017   -1.1405 H   0  0  0  0  0  0  0  0  0  0  0  0
    4.6390   -2.3750    0.5413 H   0  0  0  0  0  0  0  0  0  0  0  0
   -3.6999   -2.1205   -1.9759 H   0  0  0  0  0  0  0  0  0  0  0  0
    6.1156   -0.7579   -0.5562 H   0  0  0  0  0  0  0  0  0  0  0  0
    5.1637    2.1557   -0.2875 H   0  0  0  0  0  0  0  0  0  0  0  0
   -5.7776   -1.3889   -1.8611 H   0  0  0  0  0  0  0  0  0  0  0  0
   -5.6758    2.2761   -0.9437 H   0  0  0  0  0  0  0  0  0  0  0  0
   -4.4862    3.0609    0.1463 H   0  0  0  0  0  0  0  0  0  0  0  0
   -6.2007    2.9696    0.6063 H   0  0  0  0  0  0  0  0  0  0  0  0
    7.2443    2.3197   -1.7209 H   0  0  0  0  0  0  0  0  0  0  0  0
    7.6693    2.2909    0.0018 H   0  0  0  0  0  0  0  0  0  0  0  0
    7.8740    0.8339   -0.9872 H   0  0  0  0  0  0  0  0  0  0  0  0
  1  5  1  0  0  0  0
  1  7  1  0  0  0  0
  2 16  1  0  0  0  0
  2 21  1  0  0  0  0
  3 18  1  0  0  0  0
  3 36  1  0  0  0  0
  4  5  1  0  0  0  0
  4  6  1  0  0  0  0
  4  9  1  0  0  0  0
  4 23  1  0  0  0  0
  5  8  1  0  0  0  0
  5 24  1  0  0  0  0
  6  7  2  0  0  0  0
  6 10  1  0  0  0  0
  7 11  1  0  0  0  0
  8 13  2  0  0  0  0
  8 14  1  0  0  0  0
  9 25  1  0  0  0  0
  9 26  1  0  0  0  0
  9 27  1  0  0  0  0
 10 12  2  0  0  0  0
 10 28  1  0  0  0  0
 11 15  2  0  0  0  0
 11 29  1  0  0  0  0
 12 15  1  0  0  0  0
 12 19  1  0  0  0  0
 13 16  1  0  0  0  0
 13 30  1  0  0  0  0
 14 17  2  0  0  0  0
 14 31  1  0  0  0  0
 15 32  1  0  0  0  0
 16 18  2  0  0  0  0
 17 18  1  0  0  0  0
 17 33  1  0  0  0  0
 19 20  2  0  0  0  0
 19 34  1  0  0  0  0
 20 22  1  0  0  0  0
 20 35  1  0  0  0  0
 21 37  1  0  0  0  0
 21 38  1  0  0  0  0
 21 39  1  0  0  0  0
 22 40  1  0  0  0  0
 22 41  1  0  0  0  0
 22 42  1  0  0  0  0
M  END
> <PUBCHEM_COMPOUND_CID>
5320413

> <PUBCHEM_CONFORMER_RMSD>
0.6

> <PUBCHEM_CONFORMER_DIVERSEORDER>
1
20
8
18
3
6
19
11
21
9
7
22
10
16
4
5
17
15
2
14
12
13

> <PUBCHEM_MMFF94_PARTIAL_CHARGES>
30
1 -0.36
10 -0.15
11 -0.15
12 0.03
13 -0.15
14 -0.15
15 -0.15
16 0.08
17 -0.15
18 0.08
19 -0.18
2 -0.36
20 -0.29
21 0.28
22 0.14
28 0.15
29 0.15
3 -0.53
30 0.15
31 0.15
32 0.15
33 0.15
34 0.15
35 0.15
36 0.45
4 0.14
5 0.42
6 -0.14
7 0.08
8 -0.14

> <PUBCHEM_EFFECTIVE_ROTOR_COUNT>
3.6

> <PUBCHEM_PHARMACOPHORE_FEATURES>
7
1 1 acceptor
1 2 acceptor
1 22 hydrophobe
1 3 donor
5 1 4 5 6 7 rings
6 6 7 10 11 12 15 rings
6 8 13 14 16 17 18 rings

> <PUBCHEM_HEAVY_ATOM_COUNT>
22

> <PUBCHEM_ATOM_DEF_STEREO_COUNT>
1

> <PUBCHEM_ATOM_UDEF_STEREO_COUNT>
1

> <PUBCHEM_BOND_DEF_STEREO_COUNT>
1

> <PUBCHEM_BOND_UDEF_STEREO_COUNT>
0

> <PUBCHEM_ISOTOPIC_ATOM_COUNT>
0

> <PUBCHEM_COMPONENT_COUNT>
1

> <PUBCHEM_CACTVS_TAUTO_COUNT>
3

> <PUBCHEM_CONFORMER_ID>
00512EDD00000001

> <PUBCHEM_MMFF94_ENERGY>
74.167

> <PUBCHEM_FEATURE_SELFOVERLAP>
35.622

> <PUBCHEM_SHAPE_FINGERPRINT>
10 15 14634874180095048916
10090160 65 18040715875034797274
10595046 47 18410571782055144703
10906281 52 18260843609079339704
12011746 2 14549022074203884908
12107183 9 17621040858887153283
12236239 1 18413671292269445842
12788726 201 17774165591317457608
13631057 29 18116996800393742691
13690498 29 17773588515612544015
13760787 5 18187359892008783874
14251764 18 18343302557478178097
14528608 73 18342457071516927172
14790565 3 18338521819994831809
15048467 5 18333734615376979148
15183329 4 18272083877658348645
15196674 1 18410572847143555259
1601671 61 18130786724440287947
18222031 100 12391510858905504618
18681886 176 17632289129142941848
19784866 34 18113900459542844522
200 152 18342737420568797122
20511986 3 18341320133138120880
20612939 158 18260543399102252202
20681677 155 18342739619660799859
21033648 29 16226041159362305991
21150785 3 18412541046288171271
21267235 1 18129945693309981295
21304303 64 17894636975907925092
21641784 216 17895206450227854004
220451 1 17846783992230979579
2297311 6 16559036008234191635
23081809 10 18411133623906886818
23402539 116 18273210880817729340
23402655 69 18411417302143784906
23559900 14 16845569833522586464
29717793 49 18130229264299388870
300161 21 18343298150256085522
3004659 81 18129662989941469286
34797466 226 16558467608141384104
34934 24 18410576175922531794
4072396 5 17967800670812395170
4073 2 18041005058829387090
4340502 62 15936411143932107792
465052 167 11671782706415509620
5104073 3 17748829618146280050
542803 24 18410854352079548411
543368 44 18408322215650502493
6328613 192 18341334405330776553
7164475 11 18193554467990169072

> <PUBCHEM_SHAPE_MULTIPOLES>
435.14
15.05
2.14
0.98
6.51
0.49
-0.11
6.81
-4.23
0.12
0.15
-0.5
-0.17
-1.87

> <PUBCHEM_SHAPE_SELFOVERLAP>
942.3

> <PUBCHEM_SHAPE_VOLUME>
241.2

> <PUBCHEM_COORDINATE_TYPE>
2
5
10

$$$$
