5318574
  -OEChem-01142608143D

 53 56  0     1  0  0  0  0  0999 V2000
    1.0653    2.3033    1.0508 O   0  0  0  0  0  0  0  0  0  0  0  0
    0.7960    0.6293   -0.6039 O   0  0  0  0  0  0  0  0  0  0  0  0
    4.9226    1.9173   -0.3704 O   0  0  0  0  0  0  0  0  0  0  0  0
    3.3716    4.2157   -1.0961 O   0  0  0  0  0  0  0  0  0  0  0  0
    3.2654   -0.4458    0.0651 O   0  0  0  0  0  0  0  0  0  0  0  0
   -0.4267    4.5894    0.8277 O   0  0  0  0  0  0  0  0  0  0  0  0
   -1.8807   -1.8474   -0.0664 O   0  0  0  0  0  0  0  0  0  0  0  0
   -1.5093    2.1838   -0.5311 O   0  0  0  0  0  0  0  0  0  0  0  0
   -4.0998    2.4547   -0.3015 O   0  0  0  0  0  0  0  0  0  0  0  0
   -6.5978   -1.5292    0.3571 O   0  0  0  0  0  0  0  0  0  0  0  0
    2.7943   -3.7793    2.1037 O   0  0  0  0  0  0  0  0  0  0  0  0
    3.5901   -4.9577   -0.2837 O   0  0  0  0  0  0  0  0  0  0  0  0
    3.4962    1.9139   -0.4495 C   0  0  2  0  0  0  0  0  0  0  0  0
    2.9972    3.3083   -0.0623 C   0  0  2  0  0  0  0  0  0  0  0  0
    2.9365    0.8654    0.5109 C   0  0  1  0  0  0  0  0  0  0  0  0
    1.4750    3.3218    0.1307 C   0  0  2  0  0  0  0  0  0  0  0  0
    1.4179    0.9847    0.6299 C   0  0  1  0  0  0  0  0  0  0  0  0
    0.9809    4.6534    0.6896 C   0  0  0  0  0  0  0  0  0  0  0  0
   -0.4478    0.0708   -0.4029 C   0  0  0  0  0  0  0  0  0  0  0  0
   -0.6418   -1.2504   -0.2373 C   0  0  0  0  0  0  0  0  0  0  0  0
   -1.6238    0.9739   -0.3874 C   0  0  0  0  0  0  0  0  0  0  0  0
   -2.9345    0.3356   -0.1919 C   0  0  0  0  0  0  0  0  0  0  0  0
   -2.9942   -1.0481   -0.0412 C   0  0  0  0  0  0  0  0  0  0  0  0
    0.4675   -2.2207   -0.2463 C   0  0  0  0  0  0  0  0  0  0  0  0
   -4.1034    1.1001   -0.1588 C   0  0  0  0  0  0  0  0  0  0  0  0
   -4.2256   -1.6774    0.1432 C   0  0  0  0  0  0  0  0  0  0  0  0
    1.1171   -2.5490    0.9439 C   0  0  0  0  0  0  0  0  0  0  0  0
    0.8684   -2.8115   -1.4449 C   0  0  0  0  0  0  0  0  0  0  0  0
   -5.3338    0.4684    0.0262 C   0  0  0  0  0  0  0  0  0  0  0  0
   -5.3950   -0.9176    0.1769 C   0  0  0  0  0  0  0  0  0  0  0  0
    2.1667   -3.4677    0.9357 C   0  0  0  0  0  0  0  0  0  0  0  0
    1.9182   -3.7299   -1.4531 C   0  0  0  0  0  0  0  0  0  0  0  0
    2.5674   -4.0581   -0.2629 C   0  0  0  0  0  0  0  0  0  0  0  0
    3.2467    1.6711   -1.4888 H   0  0  0  0  0  0  0  0  0  0  0  0
    3.4987    3.6362    0.8564 H   0  0  0  0  0  0  0  0  0  0  0  0
    3.3906    1.0000    1.5008 H   0  0  0  0  0  0  0  0  0  0  0  0
    0.9683    3.1561   -0.8286 H   0  0  0  0  0  0  0  0  0  0  0  0
    1.0984    0.3057    1.4301 H   0  0  0  0  0  0  0  0  0  0  0  0
    1.2332    5.4843    0.0239 H   0  0  0  0  0  0  0  0  0  0  0  0
    1.4058    4.8415    1.6813 H   0  0  0  0  0  0  0  0  0  0  0  0
    5.1746    2.1024    0.5503 H   0  0  0  0  0  0  0  0  0  0  0  0
    2.9082    3.9520   -1.9094 H   0  0  0  0  0  0  0  0  0  0  0  0
    4.2325   -0.4882   -0.0269 H   0  0  0  0  0  0  0  0  0  0  0  0
   -0.7191    5.4444    1.1868 H   0  0  0  0  0  0  0  0  0  0  0  0
   -4.2757   -2.7569    0.2606 H   0  0  0  0  0  0  0  0  0  0  0  0
    0.8023   -2.0955    1.8812 H   0  0  0  0  0  0  0  0  0  0  0  0
    0.3719   -2.5659   -2.3805 H   0  0  0  0  0  0  0  0  0  0  0  0
   -6.2445    1.0621    0.0521 H   0  0  0  0  0  0  0  0  0  0  0  0
    2.2254   -4.1864   -2.3901 H   0  0  0  0  0  0  0  0  0  0  0  0
   -3.1947    2.7828   -0.4150 H   0  0  0  0  0  0  0  0  0  0  0  0
   -7.2983   -0.8544    0.3544 H   0  0  0  0  0  0  0  0  0  0  0  0
    2.3862   -3.2740    2.8277 H   0  0  0  0  0  0  0  0  0  0  0  0
    3.9216   -5.0648    0.6248 H   0  0  0  0  0  0  0  0  0  0  0  0
  1 16  1  0  0  0  0
  1 17  1  0  0  0  0
  2 17  1  0  0  0  0
  2 19  1  0  0  0  0
  3 13  1  0  0  0  0
  3 41  1  0  0  0  0
  4 14  1  0  0  0  0
  4 42  1  0  0  0  0
  5 15  1  0  0  0  0
  5 43  1  0  0  0  0
  6 18  1  0  0  0  0
  6 44  1  0  0  0  0
  7 20  1  0  0  0  0
  7 23  1  0  0  0  0
  8 21  2  0  0  0  0
  9 25  1  0  0  0  0
  9 50  1  0  0  0  0
 10 30  1  0  0  0  0
 10 51  1  0  0  0  0
 11 31  1  0  0  0  0
 11 52  1  0  0  0  0
 12 33  1  0  0  0  0
 12 53  1  0  0  0  0
 13 14  1  0  0  0  0
 13 15  1  0  0  0  0
 13 34  1  0  0  0  0
 14 16  1  0  0  0  0
 14 35  1  0  0  0  0
 15 17  1  0  0  0  0
 15 36  1  0  0  0  0
 16 18  1  0  0  0  0
 16 37  1  0  0  0  0
 17 38  1  0  0  0  0
 18 39  1  0  0  0  0
 18 40  1  0  0  0  0
 19 20  2  0  0  0  0
 19 21  1  0  0  0  0
 20 24  1  0  0  0  0
 21 22  1  0  0  0  0
 22 23  1  0  0  0  0
 22 25  2  0  0  0  0
 23 26  2  0  0  0  0
 24 27  2  0  0  0  0
 24 28  1  0  0  0  0
 25 29  1  0  0  0  0
 26 30  1  0  0  0  0
 26 45  1  0  0  0  0
 27 31  1  0  0  0  0
 27 46  1  0  0  0  0
 28 32  2  0  0  0  0
 28 47  1  0  0  0  0
 29 30  2  0  0  0  0
 29 48  1  0  0  0  0
 31 33  2  0  0  0  0
 32 33  1  0  0  0  0
 32 49  1  0  0  0  0
M  END
> <PUBCHEM_COMPOUND_CID>
5318574

> <PUBCHEM_CONFORMER_RMSD>
0.8

> <PUBCHEM_CONFORMER_DIVERSEORDER>
1
55
61
24
60
49
33
68
76
36
86
82
85
51
79
29
59
77
80
65
17
75
48
87
52
56
32
16
34
25
27
83
26
63
41
62
12
81
54
50
67
47
28
69
74
78
23
44
3
30
66
18
21
64
58
5
8
9
22
71
84
57
35
43
72
20
73
15
38
4
7
10
45
11
70
6
42
2
39
53
13
37
31
19
46
14
40

> <PUBCHEM_MMFF94_PARTIAL_CHARGES>
46
1 -0.56
10 -0.53
11 -0.53
12 -0.53
13 0.28
14 0.28
15 0.28
16 0.28
17 0.56
18 0.28
19 0.09
2 -0.36
20 0.05
21 0.47
22 0.09
23 0.08
24 0.03
25 0.08
26 -0.15
27 -0.15
28 -0.15
29 -0.15
3 -0.68
30 0.08
31 0.08
32 -0.15
33 0.08
4 -0.68
41 0.4
42 0.4
43 0.4
44 0.4
45 0.15
46 0.15
47 0.15
48 0.15
49 0.15
5 -0.68
50 0.45
51 0.45
52 0.45
53 0.45
6 -0.68
7 -0.16
8 -0.57
9 -0.53

> <PUBCHEM_EFFECTIVE_ROTOR_COUNT>
5.2

> <PUBCHEM_PHARMACOPHORE_FEATURES>
20
1 1 acceptor
1 10 donor
1 11 donor
1 12 donor
1 2 acceptor
1 3 acceptor
1 3 donor
1 4 acceptor
1 4 donor
1 5 acceptor
1 5 donor
1 6 acceptor
1 6 donor
1 7 acceptor
1 8 acceptor
1 9 donor
6 1 13 14 15 16 17 rings
6 22 23 25 26 29 30 rings
6 24 27 28 31 32 33 rings
6 7 19 20 21 22 23 rings

> <PUBCHEM_HEAVY_ATOM_COUNT>
33

> <PUBCHEM_ATOM_DEF_STEREO_COUNT>
5

> <PUBCHEM_ATOM_UDEF_STEREO_COUNT>
0

> <PUBCHEM_BOND_DEF_STEREO_COUNT>
0

> <PUBCHEM_BOND_UDEF_STEREO_COUNT>
0

> <PUBCHEM_ISOTOPIC_ATOM_COUNT>
0

> <PUBCHEM_COMPONENT_COUNT>
1

> <PUBCHEM_CACTVS_TAUTO_COUNT>
162

> <PUBCHEM_CONFORMER_ID>
005127AE00000001

> <PUBCHEM_MMFF94_ENERGY>
104.4768

> <PUBCHEM_FEATURE_SELFOVERLAP>
101.605

> <PUBCHEM_SHAPE_FINGERPRINT>
10050765 1 18409730626581211325
10411042 1 18123190104258017887
10675989 125 18341623654224829096
1100329 8 18123746723830019456
11014199 57 18051695447224455042
11578080 2 17169534238845979647
11963148 33 18191581068284938131
12160290 23 17181623686910101562
12788726 201 17396991158182005626
13140716 1 17978515566091004707
13540713 4 18186801371326791439
138480 1 18339360743161287870
140371 6 17693095167533549255
14466204 15 18339635732822109328
14790565 3 18193843875434437093
14955137 171 18337658764124103410
15082195 135 18197188470396055709
15927050 60 18196654210402671910
16728300 4 17825353385888456808
19591789 44 18194963173754440940
20028762 73 17984137338615504183
20465049 17 18339090388261056174
20600515 1 17763168155630815115
21033648 29 17838899592117414105
21133410 32 16375848540568810522
21133665 82 18338523053995267540
22311459 1 18338799052429732877
23366157 5 18260831471037816967
23558518 356 16893694637337998576
23559900 14 18265608789268578055
255183 451 18129104429101792055
3178227 256 18265905828905933681
3298306 158 18411140276694943686
3411729 13 18409448093919458939
350125 39 18265897049945820573
5104073 3 18337966602185083459
5265222 85 18120386612064145500
57527306 92 15936973075936407276
5776283 40 18122363508580683420
59755656 215 18335702780114299503
6679774 75 18189599709634185394
6700243 42 17269219171551198078
9777508 108 17331958829396786848

> <PUBCHEM_SHAPE_MULTIPOLES>
608.69
9.43
7.13
1.05
13.81
0.06
-0.12
-0.11
-0.16
-9.69
-0.4
-0.77
-0.69
-0.35

> <PUBCHEM_SHAPE_SELFOVERLAP>
1341.895

> <PUBCHEM_SHAPE_VOLUME>
323.4

> <PUBCHEM_COORDINATE_TYPE>
2
5
10

$$$$
